/*--------------------------------*- C++ -*----------------------------------*\
| =========                 |                                                 |
| \\      /  F ield         | OpenFOAM: The Open Source CFD Toolbox           |
|  \\    /   O peration     | Version:  v1612+                                |
|   \\  /    A nd           | Web:      www.OpenFOAM.com                      |
|    \\/     M anipulation  |                                                 |
\*---------------------------------------------------------------------------*/
FoamFile
{
    version     2.0;
    format      ascii;
    class       polyBoundaryMesh;
    location    "constant/polyMesh";
    object      boundary;
}
// * * * * * * * * * * * * * * * * * * * * * * * * * * * * * * * * * * * * * //

3
(
    flow
    {
        type            patch;
        nFaces          64;
        startFace       3736;
    }
    obstacle
    {
        type            wall;
        inGroups        1(wall);
        nFaces          144;
        startFace       3800;
    }
    frontAndBack
    {
        type            empty;
        inGroups        1(empty);
        nFaces          3840;
        startFace       3944;
    }
)

// ************************************************************************* //
