/*--------------------------------*- C++ -*----------------------------------*/

// File was generated by SwiftBlock, a Blender 3D addon.

FoamFile
{
    version     2.0;
    format      ascii;
    class       dictionary;
    object      blockMeshDict;
}
// * * * * * * * * * * * * * * * * * * * * * * * * * * * * * * * * * * * * * //

convertToMeters 0.001;

vertices
(
    (1.9798997640609741 -1.9798980951309204 1.4563636779785156)
    (1.9798957109451294 1.9799000024795532 1.4563636779785156)
    (-0.22011274099349976 0.22011278569698334 1.456363558769226)
    (0.22011268138885498 -0.2201126366853714 1.456363558769226)
    (-1.092199444770813 -1.9058305156249844e-07 1.456363558769226)
    (4.3039233332820004e-07 -1.0921999216079712 1.456363558769226)
    (1.0921999216079712 7.81585242748406e-07 1.456363558769226)
    (7.450852734791624e-08 1.092199444770813 1.456363558769226)
    (1.0586178404992097e-06 -2.799999952316284 1.4563636779785156)
    (2.799999713897705 1.8734848481472e-06 1.4563636779785156)
    (-0.35157492756843567 -7.036099702872889e-09 1.456363558769226)
    (0.35157498717308044 3.0590121014029137e-07 1.456363558769226)
    (-0.30035796761512756 7.944310453922299e-08 1.456363558769226)
    (0.3003579080104828 7.944310453922299e-08 1.456363558769226)
    (-2.9103830456733704e-08 0.30035802721977234 1.456363558769226)
    (-0.2486010193824768 0.24860098958015442 1.456363558769226)
    (0.24860070645809174 0.24860131740570068 1.456363558769226)
    (0.24860119819641113 -0.24860091507434845 1.456363558769226)
    (-0.2486010193824768 -0.2486010640859604 1.456363558769226)
    (-0.7723016738891602 0.772301435470581 1.456363558769226)
    (0.7723008394241333 0.772302508354187 1.456363558769226)
    (0.7723023891448975 -0.7723016142845154 1.456363558769226)
    (-0.7723016738891602 -0.7723020315170288 1.456363558769226)
    (-0.22011274099349976 -0.2201126366853714 1.456363558769226)
    (-2.9103830456733704e-08 -0.300357848405838 1.456363558769226)
    (-2.9103830456733704e-08 0.222601518034935 6.456363677978516)
    (-1.092199444770813 8.009374141693115e-08 6.456363677978516)
    (-0.7723020315170288 0.7723020911216736 6.456363677978516)
    (-1.97989821434021 1.979897379875183 6.456363677978516)
    (-2.7999982833862305 -6.187979124661069e-07 6.456363677978516)
    (-1.97989821434021 -1.9798990488052368 6.456363677978516)
    (0.7723020315170288 -0.772301971912384 6.456363677978516)
    (1.9798997640609741 -1.9798980951309204 6.456363677978516)
    (1.4626243682869244e-07 2.7999980449676514 6.456363677978516)
    (-0.24860113859176636 0.24860118329524994 6.456363677978516)
    (-0.7723020315170288 -0.772301971912384 6.456363677978516)
    (0.3515748679637909 8.009374141693115e-08 6.456363677978516)
    (0.24860107898712158 -0.248601034283638 6.456363677978516)
    (-2.9103830456733704e-08 0.35157498717308044 6.456363677978516)
    (-0.16313008964061737 0.16313013434410095 6.456363677978516)
    (-0.16313008964061737 -0.163129985332489 6.456363677978516)
    (0.1631300300359726 -0.163129985332489 6.456363677978516)
    (0.1631300300359726 0.16313013434410095 6.456363677978516)
    (-0.22260147333145142 8.009374141693115e-08 6.456363677978516)
    (-0.35157492756843567 8.009374141693115e-08 6.456363677978516)
    (-0.24860113859176636 -0.248601034283638 6.456363677978516)
    (-2.9103830456733704e-08 1.0921995639801025 6.456363677978516)
    (0.24860107898712158 0.24860118329524994 6.456363677978516)
    (1.092199444770813 8.009374141693115e-08 6.456363677978516)
    (-2.9103830456733704e-08 -0.3515748083591461 6.456363677978516)
    (0.7723020315170288 0.7723020911216736 6.456363677978516)
    (2.799999713897705 1.8734848481472e-06 6.456363677978516)
    (1.9798957109451294 1.9799000024795532 6.456363677978516)
    (4.3039233332820004e-07 -1.0921999216079712 6.456363677978516)
    (1.0586178404992097e-06 -2.799999952316284 6.456363677978516)
    (-2.9103830456733704e-08 -0.22260136902332306 6.456363677978516)
    (0.22260141372680664 8.009374141693115e-08 6.456363677978516)
    (-2.9103830456733704e-08 8.009374141693115e-08 6.456363677978516)
    (1.4626243682869244e-07 2.7999980449676514 1.4563636779785156)
    (-1.97989821434021 1.979897379875183 1.4563636779785156)
    (-2.7999982833862305 -6.187979124661069e-07 1.4563634395599365)
    (-1.97989821434021 -1.9798990488052368 1.4563636779785156)
    (1.9798957109451294 1.9799000024795532 0.45636415481567383)
    (2.0920000076293945 1.4083851738178055e-06 0.45636415481567383)
    (1.4792650938034058 1.4792683124542236 0.45636415481567383)
    (2.799999713897705 1.8734848481472e-06 0.45636415481567383)
    (7.962399877214921e-07 -2.0920002460479736 0.45636415481567383)
    (1.4792680740356445 -1.479266881942749 0.45636415481567383)
    (1.9798997640609741 -1.9798980951309204 0.45636415481567383)
    (1.1458007520559477e-07 2.091998815536499 0.45636415481567383)
    (1.4626243682869244e-07 2.7999980449676514 0.45636415481567383)
    (-1.4792670011520386 1.4792662858963013 0.45636415481567383)
    (-1.97989821434021 1.979897379875183 0.45636415481567383)
    (-2.091999053955078 -4.537062636700284e-07 0.45636415481567383)
    (-2.7999982833862305 -6.187979124661069e-07 0.45636415481567383)
    (-1.4792670011520386 -1.4792675971984863 0.45636415481567383)
    (-1.97989821434021 -1.9798990488052368 0.45636415481567383)
    (1.0586178404992097e-06 -2.799999952316284 0.45636415481567383)
    (0.22011268138885498 0.22011278569698334 1.456363558769226)
    (-2.9103830456733704e-08 8.009374141693115e-08 1.456363558769226)
    (1.188062555002034e-07 -0.35157498717308044 1.456363558769226)
    (4.24859791792187e-09 0.35157492756843567 1.456363558769226)
    (0.17267559468746185 -0.17267537117004395 0.0)
    (0.15288770198822021 -0.15288765728473663 0.0)
    (0.24420000612735748 2.3579931962558476e-07 0.0)
    (0.20862509310245514 7.830328740965342e-08 0.0)
    (0.1726752519607544 0.1726756989955902 0.0)
    (0.15288770198822021 0.15288780629634857 0.0)
    (-2.3214315802988494e-08 -0.20862504839897156 0.0)
    (7.957046221918063e-08 -0.24420000612735748 0.0)
    (-2.3214315802988494e-08 7.875521390587892e-08 0.0)
    (-0.1726754754781723 -0.1726754754781723 0.0)
    (-0.1528877466917038 -0.15288765728473663 0.0)
    (-0.2086251676082611 7.830328740965342e-08 0.0)
    (-0.24420000612735748 1.8436587367887114e-08 0.0)
    (-2.3214315802988494e-08 0.2086251974105835 0.0)
    (0.0 0.24420000612735748 0.0)
    (-0.1528877466917038 0.15288780629634857 0.0)
    (-0.1726754754781723 0.1726754754781723 0.0)
    (-1.97989821434021 1.979897379875183 2.4376919269561768)
    (-1.97989821434021 1.979897379875183 1.683035969734192)
    (-2.7999987602233887 -6.187979124661069e-07 1.5267410278320312)
    (-2.7999982833862305 -6.187979124661069e-07 2.5939855575561523)
    (-1.092199444770813 -1.466169692321273e-07 2.2685141563415527)
    (-1.092199444770813 -1.69153622664453e-07 1.8522125482559204)
    (-0.7723017334938049 0.7723014950752258 1.9131784439086914)
    (-0.7723017334938049 0.7723015546798706 2.2075483798980713)
    (2.1962343055292877e-10 0.35157492756843567 2.06036376953125)
    (-0.2901051938533783 7.952889546913866e-08 2.1156516075134277)
    (-0.21369338035583496 -0.2136932760477066 2.0196375846862793)
    (-0.2127671241760254 -0.21276701986789703 2.100912570953369)
    (6.199216073810021e-08 1.092199444770813 2.060363292694092)
    (1.0093872049310448e-07 -0.35157495737075806 2.06036376953125)
    (-0.2486010491847992 0.248601034283638 2.1077418327331543)
    (-0.248601034283638 -0.2486010640859604 2.0129849910736084)
    (-0.21369338035583496 0.21369342505931854 2.0196375846862793)
    (-0.291829913854599 7.951446434617537e-08 2.004746437072754)
    (-0.248601034283638 -0.2486010640859604 2.1077418327331543)
    (-0.7723017334938049 -0.7723020315170288 2.2075483798980713)
    (-0.248601034283638 0.2486010044813156 2.0129849910736084)
    (-0.2127671241760254 0.21276716887950897 2.100912570953369)
    (-0.7723017334938049 -0.7723020315170288 1.9131784439086914)
    (1.4626243682869244e-07 2.7999980449676514 2.06036376953125)
    (-0.35157492756843567 2.3215847022584057e-09 1.9933602809906006)
    (-0.35157492756843567 4.656776297906617e-09 2.127366542816162)
    (-1.97989821434021 -1.9798990488052368 1.683035969734192)
    (-1.97989821434021 -1.9798990488052368 2.4376912117004395)
    (-2.9103830456733704e-08 -0.29096487164497375 2.060363292694092)
    (-2.9103830456733704e-08 8.009374141693115e-08 2.06036376953125)
    (1.979895830154419 1.9799000024795532 2.060363292694092)
    (4.3039233332820004e-07 -1.0921999216079712 2.060363292694092)
    (-2.9103830456733704e-08 0.2909650504589081 2.060363292694092)
    (0.35157495737075806 2.7862367346642714e-07 2.060363292694092)
    (1.0586178404992097e-06 -2.799999952316284 2.060363292694092)
    (1.0921999216079712 6.968451202737924e-07 2.060363292694092)
    (0.24860116839408875 -0.24860091507434845 2.060363292694092)
    (0.21322917938232422 0.21322928369045258 2.060363292694092)
    (0.7723023295402527 -0.7723016142845154 2.060363292694092)
    (0.24860073626041412 0.2486012876033783 2.060363292694092)
    (0.29096493124961853 7.952170477665277e-08 2.060363292694092)
    (2.799999713897705 1.8734849618340377e-06 2.060363292694092)
    (0.21322917938232422 -0.21322913467884064 2.060363292694092)
    (0.7723009586334229 0.7723024487495422 2.060363292694092)
    (1.9798997640609741 -1.9798980951309204 2.060363292694092)
);
blocks
(
    hex (0 8 5 21 68 77 66 67)  (17 30 24) edgeGrading ( 1.0 1.0 1 1.0 1 1.0 1.0 1 1 1 1 1.0)
    hex (143 133 130 137 0 8 5 21)  (17 30 11) edgeGrading ( 1 1 1.0 1.0 1 1 1.0 1 1.0 1.0 1.0 1.0)
    hex (68 65 63 67 0 9 6 21)  (17 30 24) edgeGrading ( 1 1.0 1 1 1 1.0 1.0 1 1.0 1.0 1.0 1)
    hex (0 9 6 21 143 140 134 137)  (17 30 11) edgeGrading ( 1 1 1.0 1.0 1 1.0 1 1 1 1 1 1)
    hex (1 9 6 20 62 65 63 64)  (17 30 24) edgeGrading ( 1.0 1.0 1 1.0 1 1.0 1.0 1.0 1 1 1 1)
    hex (129 140 134 142 1 9 6 20)  (17 30 11) edgeGrading ( 1 1.0 1.0 1.0 1.0 1 1.0 1 1.0 1.0 1.0 1)
    hex (1 20 142 129 58 7 111 122)  (30 11 17) edgeGrading ( 1 1.0 1 1.0 1 1.0 1 1 1 1 1 1.0)
    hex (1 20 7 58 62 64 69 70)  (30 17 24) edgeGrading ( 1 1.0 1.0 1.0 1 1 1.0 1 1 1 1 1.0)
    hex (97 95 96 98 2 14 81 15)  (17 1 29) edgeGrading ( 1 1.0 1.0 1.0 1.0 1 1 1 1.0 1.0 1 1.0)
    hex (2 14 81 15 115 131 107 119)  (17 1 11) edgeGrading ( 1.0 1.0 1 1.0 1 1 1.0 1 1 1 1.0 1)
    hex (2 14 79 12 97 95 90 93)  (17 17 29) edgeGrading ( 1.0 1.0 1.0 1 1 1.0 1 1.0 1 1 1.0 1.0)
    hex (115 131 128 116 2 14 79 12)  (17 17 11) edgeGrading ( 1.0 1 1.0 1.0 1 1.0 1.0 1 1.0 1.0 1.0 1.0)
    hex (2 12 10 15 97 93 94 98)  (17 1 29) edgeGrading ( 1 1 1 1.0 1 1 1 1.0 1 1.0 1 1)
    hex (115 116 123 119 2 12 10 15)  (17 1 11) edgeGrading ( 1 1.0 1 1 1 1.0 1 1 1.0 1.0 1.0 1.0)
    hex (3 13 11 17 83 85 84 82)  (17 1 29) edgeGrading ( 1 1 1.0 1 1.0 1 1 1.0 1.0 1 1 1)
    hex (141 139 132 135 3 13 11 17)  (17 1 11) edgeGrading ( 1.0 1 1 1 1 1.0 1 1.0 1.0 1.0 1 1.0)
    hex (83 85 90 88 3 13 79 24)  (17 17 29) edgeGrading ( 1 1.0 1 1 1.0 1 1 1.0 1 1.0 1 1)
    hex (3 13 79 24 141 139 128 127)  (17 17 11) edgeGrading ( 1 1 1 1.0 1.0 1 1 1.0 1 1 1 1.0)
    hex (17 80 112 135 3 24 127 141)  (17 11 1) edgeGrading ( 1.0 1 1.0 1.0 1 1 1.0 1 1 1.0 1 1.0)
    hex (83 88 89 82 3 24 80 17)  (17 1 29) edgeGrading ( 1.0 1.0 1.0 1.0 1.0 1 1 1.0 1 1 1.0 1.0)
    hex (104 123 114 121 4 10 18 22)  (15 17 11) edgeGrading ( 1 1.0 1 1.0 1.0 1.0 1 1 1 1.0 1.0 1.0)
    hex (4 10 15 19 104 123 119 105)  (15 17 11) edgeGrading ( 1.0 1.0 1.0 1 1.0 1.0 1 1.0 1.0 1 1 1)
    hex (4 22 61 60 73 75 76 74)  (17 30 24) edgeGrading ( 1 1 1 1.0 1 1.0 1.0 1.0 1 1 1 1)
    hex (104 121 125 101 4 22 61 60)  (17 30 11) edgeGrading ( 1.0 1.0 1 1 1 1.0 1.0 1 1 1.0 1.0 1.0)
    hex (73 71 72 74 4 19 59 60)  (17 30 24) edgeGrading ( 1 1.0 1.0 1.0 1.0 1.0 1 1 1.0 1.0 1.0 1.0)
    hex (4 19 59 60 104 105 100 101)  (17 30 11) edgeGrading ( 1.0 1.0 1 1.0 1 1 1.0 1 1.0 1 1 1)
    hex (5 8 61 22 66 77 76 75)  (30 17 24) edgeGrading ( 1 1.0 1.0 1 1.0 1.0 1.0 1 1 1 1 1)
    hex (130 133 125 121 5 8 61 22)  (30 17 11) edgeGrading ( 1.0 1.0 1.0 1 1.0 1 1.0 1.0 1.0 1.0 1.0 1.0)
    hex (5 21 17 80 130 137 135 112)  (17 15 11) edgeGrading ( 1 1 1.0 1.0 1.0 1 1 1 1 1 1 1)
    hex (130 121 114 112 5 22 18 80)  (17 15 11) edgeGrading ( 1.0 1 1.0 1.0 1 1.0 1 1.0 1.0 1.0 1.0 1.0)
    hex (134 132 138 142 6 11 16 20)  (15 17 11) edgeGrading ( 1.0 1 1 1.0 1 1.0 1 1 1.0 1 1 1)
    hex (6 11 17 21 134 132 135 137)  (15 17 11) edgeGrading ( 1.0 1 1 1.0 1.0 1.0 1.0 1 1 1.0 1 1)
    hex (7 19 15 81 111 105 119 107)  (17 15 11) edgeGrading ( 1 1 1.0 1 1.0 1.0 1.0 1.0 1 1 1 1.0)
    hex (7 19 59 58 69 71 72 70)  (17 30 24) edgeGrading ( 1 1 1 1.0 1 1 1.0 1 1 1 1 1.0)
    hex (111 105 100 122 7 19 59 58)  (17 30 11) edgeGrading ( 1 1.0 1 1 1.0 1.0 1 1 1.0 1.0 1.0 1.0)
    hex (7 20 142 111 81 16 138 107)  (17 11 15) edgeGrading ( 1.0 1.0 1.0 1.0 1 1.0 1.0 1.0 1.0 1 1 1.0)
    hex (10 12 23 18 94 93 92 91)  (1 17 29) edgeGrading ( 1.0 1 1.0 1.0 1 1 1 1 1 1.0 1 1)
    hex (123 116 109 114 10 12 23 18)  (1 17 11) edgeGrading ( 1 1.0 1 1.0 1.0 1.0 1 1 1.0 1.0 1.0 1.0)
    hex (11 13 78 16 84 85 87 86)  (1 17 29) edgeGrading ( 1.0 1 1.0 1.0 1 1 1 1.0 1 1 1.0 1.0)
    hex (132 139 136 138 11 13 78 16)  (1 17 11) edgeGrading ( 1 1.0 1 1.0 1.0 1 1 1 1 1.0 1.0 1)
    hex (93 92 88 90 12 23 24 79)  (17 17 29) edgeGrading ( 1 1 1.0 1 1.0 1 1 1.0 1 1.0 1 1)
    hex (12 23 24 79 116 109 127 128)  (17 17 11) edgeGrading ( 1 1.0 1.0 1.0 1.0 1 1.0 1 1 1 1.0 1)
    hex (78 14 95 87 13 79 90 85)  (17 29 17) edgeGrading ( 1 1 1 1 1.0 1 1.0 1 1.0 1.0 1 1.0)
    hex (139 128 131 136 13 79 14 78)  (17 17 11) edgeGrading ( 1 1 1 1 1 1 1 1 1.0 1.0 1.0 1.0)
    hex (78 16 86 87 14 81 96 95)  (1 29 17) edgeGrading ( 1.0 1 1 1 1.0 1.0 1.0 1 1 1 1 1)
    hex (131 107 138 136 14 81 16 78)  (1 17 11) edgeGrading ( 1.0 1 1.0 1 1.0 1.0 1.0 1.0 1.0 1 1 1.0)
    hex (18 23 24 80 91 92 88 89)  (1 17 29) edgeGrading ( 1 1.0 1.0 1.0 1 1 1 1 1 1 1.0 1)
    hex (114 109 127 112 18 23 24 80)  (1 17 11) edgeGrading ( 1.0 1 1.0 1 1.0 1.0 1 1 1.0 1.0 1 1.0)
    hex (25 39 34 38 131 120 113 107)  (16 1 87) edgeGrading ( 1 1.0 1.0 1 1 1.0 1 1.0 1.0 1.0 1.0 1)
    hex (131 120 108 128 25 39 43 57)  (16 17 87) edgeGrading ( 1 1.0 1 1 1.0 1 1 1.0 1 1 1 1)
    hex (25 38 47 42 131 107 138 136)  (1 17 87) edgeGrading ( 1 1.0 1 1.0 1 1.0 1.0 1.0 1.0 1 1 1.0)
    hex (131 128 139 136 25 57 56 42)  (17 17 87) edgeGrading ( 1.0 1.0 1 1.0 1.0 1.0 1 1 1 1 1 1)
    hex (103 106 99 102 26 27 28 29)  (17 30 87) edgeGrading ( 1.0 1 1 1.0 1 1.0 1.0 1 1.0 1 1 1)
    hex (26 27 34 44 103 106 113 124)  (17 15 87) edgeGrading ( 1.0 1.0 1 1.0 1.0 1 1.0 1 1 1.0 1.0 1.0)
    hex (103 102 126 118 26 29 30 35)  (30 17 87) edgeGrading ( 1 1.0 1.0 1 1.0 1.0 1.0 1.0 1.0 1 1 1)
    hex (103 118 117 124 26 35 45 44)  (17 15 87) edgeGrading ( 1.0 1.0 1.0 1.0 1 1.0 1 1.0 1.0 1 1 1)
    hex (27 28 33 46 106 99 122 111)  (30 16 87) edgeGrading ( 1.0 1 1.0 1.0 1 1 1 1.0 1.0 1.0 1.0 1.0)
    hex (27 46 38 34 106 111 107 113)  (16 15 87) edgeGrading ( 1 1 1 1.0 1 1.0 1.0 1.0 1.0 1.0 1 1.0)
    hex (126 133 130 118 30 54 53 35)  (16 30 87) edgeGrading ( 1.0 1 1 1.0 1 1 1 1 1 1 1 1)
    hex (31 32 54 53 137 143 133 130)  (30 17 87) edgeGrading ( 1.0 1.0 1.0 1.0 1 1 1 1 1.0 1.0 1.0 1.0)
    hex (137 143 140 134 31 32 51 48)  (30 17 87) edgeGrading ( 1.0 1.0 1 1.0 1.0 1.0 1.0 1 1 1 1 1)
    hex (31 53 49 37 137 130 112 135)  (17 15 87) edgeGrading ( 1 1 1 1 1 1.0 1 1 1.0 1.0 1.0 1.0)
    hex (31 37 36 48 137 135 132 134)  (15 17 87) edgeGrading ( 1 1.0 1.0 1 1 1 1 1.0 1.0 1.0 1 1.0)
    hex (122 111 142 129 33 46 50 52)  (30 17 87) edgeGrading ( 1 1.0 1.0 1.0 1 1.0 1.0 1 1 1 1.0 1)
    hex (34 39 43 44 113 120 108 124)  (1 17 87) edgeGrading ( 1 1 1 1.0 1 1 1 1.0 1.0 1.0 1.0 1.0)
    hex (35 45 49 53 118 117 112 130)  (15 16 87) edgeGrading ( 1 1.0 1 1.0 1 1 1.0 1 1.0 1.0 1.0 1.0)
    hex (36 37 41 56 132 135 141 139)  (17 1 87) edgeGrading ( 1.0 1.0 1 1.0 1.0 1 1.0 1 1 1.0 1.0 1.0)
    hex (132 138 136 139 36 47 42 56)  (17 1 87) edgeGrading ( 1.0 1 1.0 1.0 1 1.0 1 1.0 1.0 1.0 1 1)
    hex (36 47 50 48 132 138 142 134)  (17 15 87) edgeGrading ( 1.0 1.0 1 1.0 1 1.0 1.0 1 1 1 1 1.0)
    hex (37 49 55 41 135 112 127 141)  (17 1 87) edgeGrading ( 1 1.0 1.0 1 1 1.0 1 1.0 1.0 1.0 1 1.0)
    hex (38 46 50 47 107 111 142 138)  (15 17 87) edgeGrading ( 1 1.0 1.0 1 1.0 1.0 1.0 1.0 1 1.0 1 1)
    hex (110 108 124 117 40 43 44 45)  (17 1 87) edgeGrading ( 1 1 1 1.0 1 1.0 1.0 1.0 1 1 1 1)
    hex (40 43 57 55 110 108 128 127)  (17 16 87) edgeGrading ( 1.0 1 1 1 1 1.0 1 1.0 1.0 1.0 1.0 1)
    hex (110 117 112 127 40 45 49 55)  (1 16 87) edgeGrading ( 1 1.0 1 1.0 1.0 1.0 1 1 1 1 1 1.0)
    hex (41 55 57 56 141 127 128 139)  (17 17 87) edgeGrading ( 1.0 1.0 1 1.0 1 1 1 1.0 1.0 1 1.0 1.0)
    hex (48 50 52 51 134 142 129 140)  (17 30 87) edgeGrading ( 1.0 1.0 1.0 1 1 1 1 1.0 1.0 1 1.0 1.0)
);

patches
(

    patch outlet
    (
        (26 27 28 29)
        (8 0 143 133)
        (57 56 42 25)
        (53 35 30 54)
        (48 31 32 51)
        (46 50 52 33)
        (44 34 27 26)
        (49 45 35 53)
        (36 37 31 48)
        (38 47 50 46)
        (43 39 34 44)
        (55 40 45 49)
        (56 41 37 36)
        (25 42 47 38)
        (39 25 38 34)
        (42 56 36 47)
        (41 55 49 37)
        (40 43 44 45)
        (34 38 46 27)
        (47 36 48 50)
        (37 49 53 31)
        (45 44 26 35)
        (27 46 33 28)
        (50 48 51 52)
        (31 53 54 32)
        (35 26 29 30)
        (43 57 25 39)
        (40 55 57 43)
        (55 41 56 57)
        (70 69 71 72)
        (1 9 65 62)
        (61 60 74 76)
        (9 0 68 65)
        (8 61 76 77)
        (60 59 72 74)
        (58 1 62 70)
        (0 8 77 68)
        (70 62 64 69)
        (65 63 64 62)
        (68 67 63 65)
        (77 66 67 68)
        (72 71 73 74)
        (74 73 75 76)
        (76 75 66 77)
        (60 61 125 101)
        (61 8 133 125)
        (59 60 101 100)
        (59 58 70 72)
        (102 126 30 29)
        (99 102 29 28)
        (0 9 140 143)
        (9 1 129 140)
        (58 59 100 122)
        (126 133 54 30)
        (122 99 28 33)
        (143 140 51 32)
        (133 143 32 54)
        (1 129 122 58)
        (33 122 129 52)
        (129 52 51 140)
    )
    wall obstacle
    (
        (16 11 6 20)
        (17 11 6 21)
        (15 10 4 19)
        (10 18 22 4)
        (4 22 75 73)
        (21 6 63 67)
        (22 5 66 75)
        (19 4 73 71)
        (20 7 69 64)
        (7 19 71 69)
        (6 20 64 63)
        (5 21 67 66)
        (11 16 86 84)
        (80 18 91 89)
        (81 16 86 96)
        (18 10 94 91)
        (17 80 89 82)
        (10 15 98 94)
        (16 81 7 20)
        (80 17 21 5)
        (18 80 5 22)
        (81 15 19 7)
        (17 11 84 82)
        (15 81 96 98)
        (109 127 128 116)
        (114 109 116 123)
        (112 127 109 114)
        (114 112 130 121)
        (121 114 123 104)
        (104 105 119 123)
        (116 115 119 123)
        (131 115 116 128)
        (115 131 107 119)
        (107 111 105 119)
        (122 100 105 111)
        (101 104 105 100)
        (121 104 101 125)
        (125 133 130 121)
        (133 126 118 130)
        (102 126 118 103)
        (124 117 118 103)
        (117 118 130 112)
        (127 110 117 112)
        (110 108 128 127)
        (110 117 124 108)
        (120 108 128 131)
        (131 120 113 107)
        (108 124 113 120)
        (113 106 111 107)
        (124 103 106 113)
        (99 106 103 102)
        (99 122 111 106)
    )
    patch inlet
    (
        (96 95 97 98)
        (83 82 84 85)
        (83 88 90 85)
        (85 90 95 87)
        (87 85 84 86)
        (87 95 96 86)
        (89 88 83 82)
        (90 95 97 93)
        (90 88 92 93)
        (89 91 92 88)
        (93 92 91 94)
        (98 97 93 94)
    )
);

edges
(
polyLine 8 0 ((9.5367431640625e-07 -2.8000001907348633 1.4563634395599365)(0.5462536811828613 -2.746198892593384 1.4563634395599365)(1.07151460647583 -2.586862564086914 1.4563636779785156)(1.5555974245071411 -2.3281140327453613 1.4563636779785156)(1.9798994064331055 -1.9798983335494995 1.4563636779785156))
polyLine 9 1 ((2.799999713897705 1.8734847344603622e-06 1.4563636779785156)(2.746197462081909 0.5462546944618225 1.4563636779785156)(2.5868606567382812 1.071515440940857 1.4563636779785156)(2.3281123638153076 1.5555980205535889 1.4563636779785156)(1.9798954725265503 1.9799001216888428 1.4563636779785156))
polyLine 0 9 ((1.9798994064331055 -1.9798983335494995 1.4563636779785156)(2.328115463256836 -1.5555952787399292 1.4563636779785156)(2.586862802505493 -1.0715118646621704 1.4563636779785156)(2.7461986541748047 -0.5462512373924255 1.4563636779785156)(2.799999713897705 1.8734847344603622e-06 1.4563636779785156))
polyLine 29 28 ((-2.7999982833862305 -6.187979124661069e-07 6.456363677978516)(-2.7461981773376465 0.5462519526481628 6.456363677978516)(-2.586862087249756 1.0715125799179077 6.456363677978516)(-2.3281140327453613 1.5555952787399292 6.456363677978516)(-1.9798989295959473 1.9798974990844727 6.456363677978516))
polyLine 52 51 ((1.9798954725265503 1.9799001216888428 6.456363677978516)(2.3281123638153076 1.5555980205535889 6.456363677978516)(2.5868606567382812 1.071515440940857 6.456363677978516)(2.746197462081909 0.5462546944618225 6.456363677978516)(2.799999713897705 1.8734847344603622e-06 6.456363677978516))
polyLine 30 29 ((-1.9798989295959473 -1.9798991680145264 6.456363677978516)(-2.3281140327453613 -1.555596947669983 6.456363677978516)(-2.586862087249756 -1.0715135335922241 6.456363677978516)(-2.7461981773376465 -0.5462532639503479 6.456363677978516)(-2.7999982833862305 -6.187979124661069e-07 6.456363677978516))
polyLine 32 54 ((1.9798994064331055 -1.9798983335494995 6.456363677978516)(1.5555974245071411 -2.3281140327453613 6.456363677978516)(1.07151460647583 -2.586862564086914 6.456363677978516)(0.5462536811828613 -2.746198892593384 6.456363677978516)(9.5367431640625e-07 -2.8000001907348633 6.456363677978516))
polyLine 28 33 ((-1.9798989295959473 1.9798974990844727 6.456363677978516)(-1.5555963516235352 2.328113079071045 6.456363677978516)(-1.0715136528015137 2.5868611335754395 6.456363677978516)(-0.5462527275085449 2.74619722366333 6.456363677978516)(-2.384185791015625e-07 2.7999982833862305 6.456363677978516))
polyLine 33 52 ((-2.384185791015625e-07 2.7999982833862305 6.456363677978516)(0.546248197555542 2.7461979389190674 6.456363677978516)(1.071509599685669 2.586862802505493 6.456363677978516)(1.5555927753448486 2.328115701675415 6.456363677978516)(1.9798954725265503 1.9799001216888428 6.456363677978516))
polyLine 51 32 ((2.799999713897705 1.8734847344603622e-06 6.456363677978516)(2.7461986541748047 -0.5462512373924255 6.456363677978516)(2.586862802505493 -1.0715118646621704 6.456363677978516)(2.328115463256836 -1.5555952787399292 6.456363677978516)(1.9798994064331055 -1.9798983335494995 6.456363677978516))
polyLine 54 30 ((9.5367431640625e-07 -2.8000001907348633 6.456363677978516)(-0.5462522506713867 -2.746199131011963 6.456363677978516)(-1.0715131759643555 -2.586862802505493 6.456363677978516)(-1.555595874786377 -2.328115224838257 6.456363677978516)(-1.9798989295959473 -1.9798991680145264 6.456363677978516))
polyLine 4 22 ((-1.0921998023986816 -1.9058305156249844e-07 1.4563632011413574)(-1.0712132453918457 -0.21307778358459473 1.4563632011413574)(-1.009061336517334 -0.4179668128490448 1.4563632011413574)(-0.9081311225891113 -0.6067939400672913 1.456363320350647)(-0.7723016738891602 -0.7723020911216736 1.456363320350647))
polyLine 5 21 ((0.0 -1.0921999216079712 1.456363320350647)(0.21307778358459473 -1.0712134838104248 1.456363320350647)(0.4179668426513672 -1.0090609788894653 1.456363320350647)(0.6067938804626465 -0.9081307649612427 1.456363320350647)(0.7723021507263184 -0.7723016738891602 1.456363320350647))
polyLine 6 20 ((1.0921998023986816 7.815852995918249e-07 1.4563634395599365)(1.0712130069732666 0.21307840943336487 1.4563634395599365)(1.0090603828430176 0.41796764731407166 1.4563634395599365)(0.9081301689147949 0.6067944765090942 1.456363320350647)(0.7723007202148438 0.7723025679588318 1.456363320350647))
polyLine 7 19 ((-2.384185791015625e-07 1.0921995639801025 1.456363320350647)(-0.21307778358459473 1.0712132453918457 1.456363320350647)(-0.4179670810699463 1.0090607404708862 1.456363320350647)(-0.6067938804626465 0.9081306457519531 1.456363320350647)(-0.7723016738891602 0.772301435470581 1.456363320350647))
polyLine 10 18 ((-0.3515751361846924 -7.036103255586568e-09 1.456363320350647)(-0.3448197841644287 -0.06858886778354645 1.456363320350647)(-0.3248133659362793 -0.13454191386699677 1.456363320350647)(-0.2923243045806885 -0.1953246146440506 1.456363320350647)(-0.24860143661499023 -0.24860109388828278 1.456363320350647))
polyLine 11 16 ((0.3515746593475342 3.059012385620008e-07 1.456363320350647)(0.3448193073272705 0.06858919560909271 1.456363320350647)(0.3248124122619629 0.13454224169254303 1.456363320350647)(0.29232335090637207 0.19532489776611328 1.456363320350647)(0.24860048294067383 0.24860131740570068 1.456363320350647))
polyLine 19 4 ((-0.7723016738891602 0.772301435470581 1.456363320350647)(-0.9081311225891113 0.6067934036254883 1.456363320350647)(-1.009061336517334 0.41796648502349854 1.4563632011413574)(-1.0712132453918457 0.2130773365497589 1.4563632011413574)(-1.0921998023986816 -1.9058305156249844e-07 1.4563632011413574))
polyLine 22 5 ((-0.7723016738891602 -0.7723020911216736 1.456363320350647)(-0.6067938804626465 -0.9081310629844666 1.456363320350647)(-0.4179670810699463 -1.0090612173080444 1.456363320350647)(-0.21307778358459473 -1.0712136030197144 1.456363320350647)(0.0 -1.0921999216079712 1.456363320350647))
polyLine 21 6 ((0.7723021507263184 -0.7723016738891602 1.456363320350647)(0.9081311225891113 -0.6067932844161987 1.456363320350647)(1.009061336517334 -0.4179661273956299 1.4563634395599365)(1.0712132453918457 -0.21307696402072906 1.4563634395599365)(1.0921998023986816 7.815852995918249e-07 1.4563634395599365))
polyLine 20 7 ((0.7723007202148438 0.7723025679588318 1.456363320350647)(0.6067922115325928 0.90813148021698 1.456363320350647)(0.4179651737213135 1.0090612173080444 1.456363320350647)(0.2130756378173828 1.0712133646011353 1.456363320350647)(-2.384185791015625e-07 1.0921995639801025 1.456363320350647))
polyLine 15 10 ((-0.24860143661499023 0.24860098958015442 1.456363320350647)(-0.2923243045806885 0.19532454013824463 1.456363320350647)(-0.3248128890991211 0.13454186916351318 1.456363320350647)(-0.3448197841644287 0.06858885288238525 1.456363320350647)(-0.3515751361846924 -7.036103255586568e-09 1.456363320350647))
polyLine 17 11 ((0.24860095977783203 -0.24860092997550964 1.456363320350647)(0.2923238277435303 -0.19532442092895508 1.456363320350647)(0.3248128890991211 -0.13454169034957886 1.456363320350647)(0.3448193073272705 -0.06858860701322556 1.456363320350647)(0.3515746593475342 3.059012385620008e-07 1.456363320350647))
polyLine 64 63 ((1.479264736175537 1.4792684316635132 0.4563640356063843)(1.739432692527771 1.1622540950775146 0.4563640356063843)(1.9327548742294312 0.800575315952301 0.4563640356063843)(2.051801919937134 0.40813037753105164 0.4563640356063843)(2.0919997692108154 1.4083851738178055e-06 0.4563640356063843))
polyLine 67 66 ((1.4792675971984863 -1.4792670011520386 0.4563640356063843)(1.1622536182403564 -1.7394341230392456 0.4563640356063843)(0.8005743026733398 -1.932755947113037 0.4563640356063843)(0.4081296920776367 -2.0518031120300293 0.4563639163970947)(4.76837158203125e-07 -2.0920002460479736 0.4563639163970947))
polyLine 71 69 ((-1.4792675971984863 1.4792662858963013 0.4563637971878052)(-1.1622529029846191 1.7394334077835083 0.4563637971878052)(-0.8005738258361816 1.9327548742294312 0.4563637971878052)(-0.4081289768218994 2.0518016815185547 0.4563639163970947)(-2.384185791015625e-07 2.091998815536499 0.4563639163970947))
polyLine 70 72 ((-2.384185791015625e-07 2.7999982833862305 0.4563639163970947)(-0.5462527275085449 2.74619722366333 0.4563637971878052)(-1.0715136528015137 2.5868611335754395 0.4563637971878052)(-1.5555963516235352 2.328113079071045 0.4563637971878052)(-1.9798989295959473 1.9798974990844727 0.4563637971878052))
polyLine 76 77 ((-1.9798989295959473 -1.9798991680145264 0.4563637971878052)(-1.555595874786377 -2.328115224838257 0.4563637971878052)(-1.0715131759643555 -2.586862802505493 0.4563637971878052)(-0.5462522506713867 -2.746199131011963 0.4563637971878052)(9.5367431640625e-07 -2.8000001907348633 0.4563639163970947))
polyLine 66 75 ((4.76837158203125e-07 -2.0920002460479736 0.4563639163970947)(-0.4081284999847412 -2.0518031120300293 0.4563639163970947)(-0.8005733489990234 -1.9327561855316162 0.4563637971878052)(-1.162252426147461 -1.739434838294983 0.4563637971878052)(-1.4792675971984863 -1.4792677164077759 0.4563637971878052))
polyLine 74 76 ((-2.7999982833862305 -6.187979124661069e-07 0.4563637971878052)(-2.7461981773376465 -0.5462532639503479 0.4563637971878052)(-2.586862087249756 -1.0715135335922241 0.4563637971878052)(-2.3281140327453613 -1.555596947669983 0.4563637971878052)(-1.9798989295959473 -1.9798991680145264 0.4563637971878052))
polyLine 75 73 ((-1.4792675971984863 -1.4792677164077759 0.4563637971878052)(-1.7394342422485352 -1.1622532606124878 0.4563637971878052)(-1.932755470275879 -0.8005738854408264 0.4563637971878052)(-2.051802158355713 -0.4081292748451233 0.4563637971878052)(-2.0919995307922363 -4.537062636700284e-07 0.4563637971878052))
polyLine 72 74 ((-1.9798989295959473 1.9798974990844727 0.4563637971878052)(-2.3281140327453613 1.5555952787399292 0.4563637971878052)(-2.586862087249756 1.0715125799179077 0.4563637971878052)(-2.7461981773376465 0.5462519526481628 0.4563637971878052)(-2.7999982833862305 -6.187979124661069e-07 0.4563637971878052))