/*--------------------------------*- C++ -*----------------------------------*\
| =========                 |                                                 |
| \\      /  F ield         | OpenFOAM: The Open Source CFD Toolbox           |
|  \\    /   O peration     | Version:  2.3.0                                 |
|   \\  /    A nd           | Web:      www.OpenFOAM.org                      |
|    \\/     M anipulation  |                                                 |
\*---------------------------------------------------------------------------*/
FoamFile
{
    version     2.0;
    format      ascii;
    class       dictionary;
    object      blockMeshDict;
}
// * * * * * * * * * * * * * * * * * * * * * * * * * * * * * * * * * * * * * //

convertToMeters 0.001;

vertices
(
    (-0.0176     0.0000    0.0)//00
    ( 0.0000     0.0000    0.0)//01
    ( 0.0000     0.1000    0.0)//02
    (-0.0176     0.0880    0.0)//03
    (-0.0176     0.0000    0.01)//04
    ( 0.0000     0.0000    0.01)//05
    ( 0.0000     0.1000    0.01)//06
    (-0.0176     0.0880    0.01)//07

    ( 0.0000     0.2000    0.0)//08
    (-0.0176     0.2000    0.0)//09*
    ( 0.0000     0.2000    0.01)//10
    (-0.0176     0.2000    0.01)//11*

    ( 0.0000    -0.0880    0.0)//12 
    ( 0.2000    -0.0880    0.0)//13
    ( 0.2000     0.0000    0.0)//14
    ( 0.0000    -0.0880    0.01)//15
    ( 0.2000    -0.0880    0.01)//16
    ( 0.2000     0.0000    0.01)//17

    ( 0.2000     0.1000    0.0)//18
    ( 0.2000     0.1000    0.01)//19
    ( 0.2000     0.2000    0.0)//20
    ( 0.2000     0.2000    0.01)//21

    (-0.0176     0.0000    0.0)//22*
    (-0.0176     0.2000    0.0)//23*
    (-1.2333     0.2000    0.0)//24*
    (-0.0176     0.0000    0.01)//25*
    (-0.0176     0.2000    0.01)//26*
    (-1.2333     0.2000    0.01)//27*

    (-0.0739     0.0367    0.0)//28
    (-0.0739     0.0518    0.0)//29
    (-0.0739     0.0367    0.01)//30
    (-0.0739     0.0518    0.01)//31

    (-0.1000     0.0885    0.01)//32
    (-0.1000     0.0000    0.01)//33
    (-0.1000     0.0885    0.0)//34
    (-0.1000     0.0000    0.0)//35
    
);

blocks
(
    hex ( 0  1  2  3  4  5  6  7) ( 12 90 1) simpleGrading (1 1 1)
    hex (12 13 14  1 15 16 17  5) ( 90 90 1) simpleGrading (1 1 1)
    hex ( 1 14 18  2  5 17 19  6) ( 90 90 1) simpleGrading (1 1 1)
    hex ( 2 18 20  8  6 19 21 10) ( 90 90 1) simpleGrading (1 1 1)
    hex (28  0  3 29 30  4  7 31) ( 45 90 1) simpleGrading (1 1 1)
    hex (35 28 29 34 33 30 31 32) ( 45 90 1) simpleGrading (1 1 1)
);
edges
(
);


boundary
(

    flow
    {
        type patch;
        faces
        (
            (34 35 33 32)
        );
    }
    forward
    {
        type patch;
        faces
        (
            (13 14 17 16)
            (18 20 21 19)
            (14 18 19 17)
        );
    }
    

    top
    {
        type patch;
        faces
        (
            // (18 2 6 19)
            (20  8 10 21)
        );
    }
    
    bottom
    {
        type patch;
        faces
        (
            // (1 14 17 5)
            (12 13 16 15)
        );
    }
    
    rear
    {
        type patch;
        faces
        (
            (8 2 6 10)
            (1 12 15 5)
        );
    }
    obstacle
    {
        type wall;
        faces
        (
            (3 29 31 7)
            (28 0 4 30)
            ( 0  1  5  4)
            ( 2  3  7  6)
            (35 28 30 33)
            (29 34 32 31)
        );
    }

)
mergePatchPairs
(
);

// ************************************************************************* //
